Circuit: * C:\users\joaoantoniocardoso\Desktop\ZeniteSolar\MCC17\Hardware\current_sense_alt.asc

Early termination of direct N-R iteration.
Direct Newton iteration failed to find .op point.  (Use ".option noopiter" to skip.)
Starting Gmin stepping
Gmin = 10
Gmin = 1.07374
Gmin = 0.115292
Gmin = 0.0123794
Gmin = 0.00132923
Gmin = 0.000142725
vernier = 0.5
vernier = 0.25
Gmin = 4.4017e-005
vernier = 0.125
vernier = 0.0625
vernier = 0.03125
vernier = 0.0416667
Gmin = 4.40605e-005
vernier = 0.0208333
vernier = 0.0104167
vernier = 0.00520833
vernier = 0.00260417
vernier = 0.00347222
Gmin = 4.43364e-005
vernier = 0.00462963
vernier = 0.00231481
Gmin = 4.40169e-005
vernier = 0.00115741
vernier = 0.000578703
vernier = 0.000434027
Gmin = 0
Gmin stepping failed

Starting source stepping with srcstepmethod=0
Source Step = 3.0303%
Source Step = 33.3333%
Source Step = 63.6364%
Source Step = 93.9394%
Source stepping succeeded in finding the operating point.


Date: Tue Nov 28 18:11:52 2017
Total elapsed time: 0.865 seconds.

tnom = 27
temp = 27
method = modified trap
totiter = 5353
traniter = 3067
tranpoints = 1260
accept = 1163
rejected = 97
matrix size = 133
fillins = 687
solver = Alternate
Thread vector: 21.5/13.9[2] 7.9/4.5[2] 5.5/4.8[2] 2.5/2.4[2]  2592/500
Matrix Compiler1: 91.88 KB object code size  25.5/16.3/[13.8]
Matrix Compiler2: 25.96 KB object code size  5.0/5.1/[2.8]

