Circuit: * C:\users\joaoantoniocardoso\Desktop\ZeniteSolar\MCC17\Hardware\current_sense.asc

Early termination of direct N-R iteration.
Direct Newton iteration failed to find .op point.  (Use ".option noopiter" to skip.)
Starting Gmin stepping
Gmin = 10
Gmin = 1.07374
Gmin = 0.115292
Gmin = 0.0123794
Gmin = 0.00132923
Gmin = 0.000142725
Gmin = 1.5325e-005
Gmin = 1.6455e-006
Gmin = 1.76685e-007
Gmin = 1.89714e-008
Gmin = 2.03704e-009
Gmin = 2.18725e-010
Gmin = 2.34854e-011
Gmin = 2.52173e-012
Gmin = 2.70769e-013
Gmin = 0
Gmin stepping succeeded in finding the operating point.


Date: Thu Apr 12 20:26:21 2018
Total elapsed time: 0.380 seconds.

tnom = 27
temp = 27
method = modified trap
totiter = 4230
traniter = 3782
tranpoints = 1480
accept = 1263
rejected = 217
matrix size = 134
fillins = 205
solver = Alternate
Thread vector: 25.4/18.7[2] 8.9/7.7[2] 7.6/5.0[2] 3.0/3.9[1]  2592/500
Matrix Compiler1: 20.34 KB object code size  8.3/4.8/[3.5]
Matrix Compiler2: 16.53 KB object code size  5.6/6.1/[3.2]

