Circuit: * C:\users\joaoantoniocardoso\Desktop\ZeniteSolar\MCC17\Hardware\vin_sense.asc

Early termination of direct N-R iteration.
Direct Newton iteration failed to find .op point.  (Use ".option noopiter" to skip.)
Starting Gmin stepping
Gmin = 10
Gmin = 1.07374
Gmin = 0.115292
Gmin = 0.0123794
Gmin = 0.00132923
Gmin = 0.000142725
Gmin = 1.5325e-005
Gmin = 1.6455e-006
Gmin = 1.76685e-007
Gmin = 1.89714e-008
Gmin = 2.03704e-009
Gmin = 2.18725e-010
Gmin = 2.34854e-011
Gmin = 2.52173e-012
Gmin = 2.70769e-013
Gmin = 0
Gmin stepping succeeded in finding the operating point.

Heightened Def Con from 0.0300758 to 0.0300758

Date: Thu Apr 12 20:29:11 2018
Total elapsed time: 1.180 seconds.

tnom = 27
temp = 27
method = modified trap
totiter = 24543
traniter = 24082
tranpoints = 8584
accept = 5923
rejected = 2662
matrix size = 137
fillins = 249
solver = Alternate
Thread vector: 26.1/16.5[2] 8.7/5.8[2] 6.9/6.2[2] 3.0/3.3[1]  2592/500
Matrix Compiler1: 24.20 KB object code size  9.4/5.8/[4.0]
Matrix Compiler2: 17.75 KB object code size  5.3/5.6/[3.2]

